115
Lattice="26.88 0.0 0.0 0.0 7.0 0.0 0.0 0.0 24.595121467478055" Properties=species:S:1:pos:R:3 pbc="F F T"
N        3.50000000       3.50000000       2.45951215
N        4.21000000       3.50000000       3.68926822
N        3.50000000       3.50000000       7.37853644
N        4.21000000       3.50000000       8.60829251
N        4.21000000       3.50000000      11.06780466
N        3.50000000       3.50000000      12.29756073
N        4.21000000       3.50000000      13.52731681
C        3.50000000       3.50000000      14.75707288
C        4.21000000       3.50000000      15.98682895
N        3.50000000       3.50000000      17.21658503
N        4.21000000       3.50000000      18.44634110
C        4.21000000       3.50000000      20.90585325
N        4.21000000       3.50000000      23.36536539
C        5.63000000       3.50000000       3.68926822
N        6.34000000       3.50000000       7.37853644
C        6.34000000       3.50000000      12.29756073
C        6.34000000       3.50000000      14.75707288
N        5.63000000       3.50000000      15.98682895
C        5.63000000       3.50000000      18.44634110
C        6.34000000       3.50000000      19.67609717
N        6.34000000       3.50000000      22.13560932
C        6.34000000       3.50000000       0.00000000
N        7.76000000       3.50000000       0.00000000
C        8.47000000       3.50000000       1.22975607
N        7.76000000       3.50000000       2.45951215
N        8.47000000       3.50000000       3.68926822
N        8.47000000       3.50000000       6.14878037
C        7.76000000       3.50000000       9.83804859
C        8.47000000       3.50000000      11.06780466
C        7.76000000       3.50000000      12.29756073
C        8.47000000       3.50000000      13.52731681
C        7.76000000       3.50000000      17.21658503
N        8.47000000       3.50000000      18.44634110
C        8.47000000       3.50000000      23.36536539
N        9.89000000       3.50000000       1.22975607
C       10.60000000       3.50000000       2.45951215
N        9.89000000       3.50000000       3.68926822
C       10.60000000       3.50000000       4.91902429
N        9.89000000       3.50000000       6.14878037
N       10.60000000       3.50000000       7.37853644
N        9.89000000       3.50000000       8.60829251
N        9.89000000       3.50000000      11.06780466
C       10.60000000       3.50000000      12.29756073
N        9.89000000       3.50000000      13.52731681
C       10.60000000       3.50000000      14.75707288
C       10.60000000       3.50000000      17.21658503
C       10.60000000       3.50000000      19.67609717
N       10.60000000       3.50000000      22.13560932
C        9.89000000       3.50000000      23.36536539
N       10.60000000       3.50000000       0.00000000
C       12.73000000       3.50000000       1.22975607
C       12.73000000       3.50000000       3.68926822
N       12.73000000       3.50000000       6.14878037
C       12.02000000       3.50000000      14.75707288
N       12.73000000       3.50000000      18.44634110
C       12.02000000       3.50000000      19.67609717
C       12.73000000       3.50000000      20.90585325
N       14.15000000       3.50000000       1.22975607
N       14.86000000       3.50000000       2.45951215
C       14.15000000       3.50000000       6.14878037
N       14.15000000       3.50000000       8.60829251
C       14.86000000       3.50000000       9.83804859
C       14.15000000       3.50000000      11.06780466
C       14.15000000       3.50000000      13.52731681
C       14.15000000       3.50000000      15.98682895
C       14.86000000       3.50000000      17.21658503
C       14.86000000       3.50000000      19.67609717
N       14.86000000       3.50000000      22.13560932
N       14.15000000       3.50000000      23.36536539
C       14.86000000       3.50000000       0.00000000
C       16.99000000       3.50000000       1.22975607
C       16.99000000       3.50000000       6.14878037
C       16.28000000       3.50000000       7.37853644
N       16.99000000       3.50000000      13.52731681
N       16.28000000       3.50000000      17.21658503
C       16.28000000       3.50000000      19.67609717
N       16.99000000       3.50000000      20.90585325
N       19.12000000       3.50000000       2.45951215
N       19.12000000       3.50000000       4.91902429
N       18.41000000       3.50000000       6.14878037
C       18.41000000       3.50000000       8.60829251
C       19.12000000       3.50000000      12.29756073
C       19.12000000       3.50000000      14.75707288
C       18.41000000       3.50000000      15.98682895
C       18.41000000       3.50000000      18.44634110
C       19.12000000       3.50000000      19.67609717
C       19.12000000       3.50000000       0.00000000
N       20.54000000       3.50000000       0.00000000
C       21.25000000       3.50000000       1.22975607
C       20.54000000       3.50000000       2.45951215
N       20.54000000       3.50000000       4.91902429
N       21.25000000       3.50000000       6.14878037
C       21.25000000       3.50000000       8.60829251
N       21.25000000       3.50000000      13.52731681
C       20.54000000       3.50000000      14.75707288
C       21.25000000       3.50000000      15.98682895
N       20.54000000       3.50000000      17.21658503
C       21.25000000       3.50000000      18.44634110
N       20.54000000       3.50000000      19.67609717
N       21.25000000       3.50000000      20.90585325
N       20.54000000       3.50000000      22.13560932
C       22.67000000       3.50000000       1.22975607
N       22.67000000       3.50000000       3.68926822
N       23.38000000       3.50000000       4.91902429
C       22.67000000       3.50000000       6.14878037
C       23.38000000       3.50000000       9.83804859
N       23.38000000       3.50000000      12.29756073
N       22.67000000       3.50000000      13.52731681
N       23.38000000       3.50000000      14.75707288
C       23.38000000       3.50000000      17.21658503
C       22.67000000       3.50000000      18.44634110
N       23.38000000       3.50000000      19.67609717
N       22.67000000       3.50000000      20.90585325
C       22.67000000       3.50000000      23.36536539
C       23.38000000       3.50000000       0.00000000
